            TRNSYS - the TRaNsient SYstem Simulation program

   The Solar Energy Lab at the University of Wisconsin - Madison, USA
Le Centre Scientifique et Technique du Batiment, Sophia Antipolis, France
           Transsolar Energietechnik GmBH, Stuttgart, Germany
        Thermal Energy System Specialists, Madison Wisconsin, USA

                           Release 16.01.0003

Listing file for: "C:\Ricardo\Girter\alf8.dck"
 
*** Notice at time        :         0.000000
    Generated by Unit     : Not applicable or not available
    Generated by Type     : Not applicable or not available
    Message               : The TRNSYS Executable (TRNExe.exe) and main DLL (TRNDll.dll) are located in "C:\PROGRA~2\TRNSYS~1\Exe"
 

 *** Pre-Processing the TRNSYS EQUATIONs and CONSTANTs to check for fatal errors.

 *** Pre-Processing of EQUATIONs and CONSTANTs completed with no fatal errors found.

 *** Evaluating the EQUATIONs and CONSTANTs to determine their initial values.

 *** Finished evaluating the EQUATIONs and CONSTANTs and ready to begin processing the remainder of the TRNSYS input file.

  VERSION        16
*******************************************************************************                                                                                                                                                                                                                                                                                                                                                                                                                                                                                                                                                                                                                                                                                                                                                                                                                                                                                                                                                         
*** TRNSYS input file (deck) generated by TrnsysStudio                                                                                                                                                                                                                                                                                                                                                                                                                                                                                                                                                                                                                                                                                                                                                                                                                                                                                                                                                                                  
*** on miércoles, mayo 30, 2018 at 16:04                                                                                                                                                                                                                                                                                                                                                                                                                                                                                                                                                                                                                                                                                                                                                                                                                                                                                                                                                                                                
*** from TrnsysStudio project: C:\Ricardo\Girter\alf8.tpf                                                                                                                                                                                                                                                                                                                                                                                                                                                                                                                                                                                                                                                                                                                                                                                                                                                                                                                                                                               
***                                                                                                                                                                                                                                                                                                                                                                                                                                                                                                                                                                                                                                                                                                                                                                                                                                                                                                                                                                                                                                     
*** If you edit this file, use the File/Import TRNSYS Input File function in                                                                                                                                                                                                                                                                                                                                                                                                                                                                                                                                                                                                                                                                                                                                                                                                                                                                                                                                                            
*** TrnsysStudio to update the project.                                                                                                                                                                                                                                                                                                                                                                                                                                                                                                                                                                                                                                                                                                                                                                                                                                                                                                                                                                                                 
***                                                                                                                                                                                                                                                                                                                                                                                                                                                                                                                                                                                                                                                                                                                                                                                                                                                                                                                                                                                                                                     
*** If you have problems, questions or suggestions please contact your local                                                                                                                                                                                                                                                                                                                                                                                                                                                                                                                                                                                                                                                                                                                                                                                                                                                                                                                                                            
*** TRNSYS distributor or mailto:software@cstb.fr                                                                                                                                                                                                                                                                                                                                                                                                                                                                                                                                                                                                                                                                                                                                                                                                                                                                                                                                                                                       
***                                                                                                                                                                                                                                                                                                                                                                                                                                                                                                                                                                                                                                                                                                                                                                                                                                                                                                                                                                                                                                     
*******************************************************************************                                                                                                                                                                                                                                                                                                                                                                                                                                                                                                                                                                                                                                                                                                                                                                                                                                                                                                                                                         
*******************************************************************************                                                                                                                                                                                                                                                                                                                                                                                                                                                                                                                                                                                                                                                                                                                                                                                                                                                                                                                                                         
*** Units                                                                                                                                                                                                                                                                                                                                                                                                                                                                                                                                                                                                                                                                                                                                                                                                                                                                                                                                                                                                                               
*******************************************************************************                                                                                                                                                                                                                                                                                                                                                                                                                                                                                                                                                                                                                                                                                                                                                                                                                                                                                                                                                         
*******************************************************************************                                                                                                                                                                                                                                                                                                                                                                                                                                                                                                                                                                                                                                                                                                                                                                                                                                                                                                                                                         
*** Control cards                                                                                                                                                                                                                                                                                                                                                                                                                                                                                                                                                                                                                                                                                                                                                                                                                                                                                                                                                                                                                       
*******************************************************************************                                                                                                                                                                                                                                                                                                                                                                                                                                                                                                                                                                                                                                                                                                                                                                                                                                                                                                                                                         
* START, STOP and STEP                                                                                                                                                                                                                                                                                                                                                                                                                                                                                                                                                                                                                                                                                                                                                                                                                                                                                                                                                                                                                  

  CONSTANTS   3
     START=0
     STOP=8760
     STEP=1
* User defined CONSTANTS                                                                                                                                                                                                                                                                                                                                                                                                                                                                                                                                                                                                                                                                                                                                                                                                                                                                                                                                                                                                                
! Start time	End time	Time step                                                                                                                                                                                                                                                                                                                                                                                                                                                                                                                                                                                                                                                                                                                                                                                                                                                                                                                                                                          

  SIMULATION         0.0000000000000000E+00    8.7600000000000000E+03    1.0000000000000000E+00
! Integration	 Convergence                                                                                                                                                                                                                                                                                                                                                                                                                                                                                                                                                                                                                                                                                                                                                                                                                                                                                                                                                                                     

  TOLERANCES         1.0000000000000002E-03    1.0000000000000002E-03
! Max iterations	Max warnings	Trace limit                                                                                                                                                                                                                                                                                                                                                                                                                                                                                                                                                                                                                                                                                                                                                                                                                                                                                                                                                                            

  LIMITS        30        60        31
! TRNSYS numerical integration solver method                                                                                                                                                                                                                                                                                                                                                                                                                                                                                                                                                                                                                                                                                                                                                                                                                                                                                                                                                                                  

  DFQ   1
! TRNSYS output file width, number of characters                                                                                                                                                                                                                                                                                                                                                                                                                                                                                                                                                                                                                                                                                                                                                                                                                                                                                                                                                                            

  WIDTH    80
! NOLIST statement                                                                                                                                                                                                                                                                                                                                                                                                                                                                                                                                                                                                                                                                                                                                                                                                                                                                                                                                                                                                            

  LIST
! MAP statement                                                                                                                                                                                                                                                                                                                                                                                                                                                                                                                                                                                                                                                                                                                                                                                                                                                                                                                                                                                                                    
! Solver statement	Minimum relaxation factor	Maximum relaxation factor                                                                                                                                                                                                                                                                                                                                                                                                                                                                                                                                                                                                                                                                                                                                                                                                                                                                                                                                                  

  SOLVER  0
    1.000000000000000    
    1.000000000000000    
! Nan DEBUG statement                                                                                                                                                                                                                                                                                                                                                                                                                                                                                                                                                                                                                                                                                                                                                                                                                                                                                                                                                                                                    

  NAN_CHECK   0
! Overwrite DEBUG statement                                                                                                                                                                                                                                                                                                                                                                                                                                                                                                                                                                                                                                                                                                                                                                                                                                                                                                                                                                                         

  OVERWRITE_CHECK   0
! disable time report                                                                                                                                                                                                                                                                                                                                                                                                                                                                                                                                                                                                                                                                                                                                                                                                                                                                                                                                                                                                   

  TIME_REPORT   0
! EQUATION SOLVER statement                                                                                                                                                                                                                                                                                                                                                                                                                                                                                                                                                                                                                                                                                                                                                                                                                                                                                                                                                                                               

  EQUATION SOLVING METHOD         0
* Model "Type56b" (Type 56)                                                                                                                                                                                                                                                                                                                                                                                                                                                                                                                                                                                                                                                                                                                                                                                                                                                                                                                                                                                                             
*                                                                                                                                                                                                                                                                                                                                                                                                                                                                                                                                                                                                                                                                                                                                                                                                                                                                                                                                                                                                                                       

  UNIT   3     TYPE  56                                                   
*$UNIT_NAME Type56b                                                                                                                                                                                                                                                                                                                                                                                                                                                                                                                                                                                                                                                                                                                                                                                                                                                                                                                                                                                                                     
*$MODEL .\Loads and Structures\Multi-Zone Building\Without Standard Output Files\Type56b.tmf                                                                                                                                                                                                                                                                                                                                                                                                                                                                                                                                                                                                                                                                                                                                                                                                                                                                                                                                            
*$POSITION 450 477                                                                                                                                                                                                                                                                                                                                                                                                                                                                                                                                                                                                                                                                                                                                                                                                                                                                                                                                                                                                                      
*$LAYER Main #                                                                                                                                                                                                                                                                                                                                                                                                                                                                                                                                                                                                                                                                                                                                                                                                                                                                                                                                                                                                                          
*$#                                                                                                                                                                                                                                                                                                                                                                                                                                                                                                                                                                                                                                                                                                                                                                                                                                                                                                                                                                                                                                     
       PARAMETERS   3
! 1 Logical unit for building description file (.bui)                                                                                                                                                                                                                                                                                                                                                                                                                                                                                                                                                                                                                                                                                                                                                                                                                                                                                                                                                                               
! 2 Star network calculation switch                                                                                                                                                                                                                                                                                                                                                                                                                                                                                                                                                                                                                                                                                                                                                                                                                                                                                                                                                                                                  
! 3 Weighting factor for operative temperature                                                                                                                                                                                                                                                                                                                                                                                                                                                                                                                                                                                                                                                                                                                                                                                                                                                                                                                                                                                    
       3.1000000000000000E+01    0.0000000000000000E+00    5.0000000000000000E-01
       INPUTS   32
! clima:Output 4 -> 1- TAMB                                                                                                                                                                                                                                                                                                                                                                                                                                                                                                                                                                                                                                                                                                                                                                                                                                                                                                                                                                                                      
! clima:Output 9 -> 2- RELHUMAMB                                                                                                                                                                                                                                                                                                                                                                                                                                                                                                                                                                                                                                                                                                                                                                                                                                                                                                                                                                                                 
! clima:Output 5 -> 3- TSKY                                                                                                                                                                                                                                                                                                                                                                                                                                                                                                                                                                                                                                                                                                                                                                                                                                                                                                                                                                                                      
! [unconnected]  4- IT_NORTH                                                                                                                                                                                                                                                                                                                                                                                                                                                                                                                                                                                                                                                                                                                                                                                                                                                                                                                                                                                                       
! Type16e:Total radiation on surface 1 -> 5- IT_SOUTH                                                                                                                                                                                                                                                                                                                                                                                                                                                                                                                                                                                                                                                                                                                                                                                                                                                                                                                                                                            
! [unconnected]  6- IT_EAST                                                                                                                                                                                                                                                                                                                                                                                                                                                                                                                                                                                                                                                                                                                                                                                                                                                                                                                                                                                                        
! [unconnected]  7- IT_WEST                                                                                                                                                                                                                                                                                                                                                                                                                                                                                                                                                                                                                                                                                                                                                                                                                                                                                                                                                                                                        
! Type16e:Total horizontal radiation -> 8- IT_HORIZONTAL                                                                                                                                                                                                                                                                                                                                                                                                                                                                                                                                                                                                                                                                                                                                                                                                                                                                                                                                                                         
! [unconnected]  9- IB_NORTH                                                                                                                                                                                                                                                                                                                                                                                                                                                                                                                                                                                                                                                                                                                                                                                                                                                                                                                                                                                                       
! Type16e:Beam radiation on surface 1 -> 10- IB_SOUTH                                                                                                                                                                                                                                                                                                                                                                                                                                                                                                                                                                                                                                                                                                                                                                                                                                                                                                                                                                            
! [unconnected]  11- IB_EAST                                                                                                                                                                                                                                                                                                                                                                                                                                                                                                                                                                                                                                                                                                                                                                                                                                                                                                                                                                                                       
! [unconnected]  12- IB_WEST                                                                                                                                                                                                                                                                                                                                                                                                                                                                                                                                                                                                                                                                                                                                                                                                                                                                                                                                                                                                       
! Type16e:Beam radiation on horizontal -> 13- IB_HORIZONTAL                                                                                                                                                                                                                                                                                                                                                                                                                                                                                                                                                                                                                                                                                                                                                                                                                                                                                                                                                                      
! [unconnected]  14- AI_NORTH                                                                                                                                                                                                                                                                                                                                                                                                                                                                                                                                                                                                                                                                                                                                                                                                                                                                                                                                                                                                      
! Type16e:Incidence angle for surface 1 -> 15- AI_SOUTH                                                                                                                                                                                                                                                                                                                                                                                                                                                                                                                                                                                                                                                                                                                                                                                                                                                                                                                                                                         
! [unconnected]  16- AI_EAST                                                                                                                                                                                                                                                                                                                                                                                                                                                                                                                                                                                                                                                                                                                                                                                                                                                                                                                                                                                                       
! [unconnected]  17- AI_WEST                                                                                                                                                                                                                                                                                                                                                                                                                                                                                                                                                                                                                                                                                                                                                                                                                                                                                                                                                                                                       
! Type16e:Solar zenith angle -> 18- AI_HORIZONTAL                                                                                                                                                                                                                                                                                                                                                                                                                                                                                                                                                                                                                                                                                                                                                                                                                                                                                                                                                                                
! Equa:inf -> 19- INFILTR                                                                                                                                                                                                                                                                                                                                                                                                                                                                                                                                                                                                                                                                                                                                                                                                                                                                                                                                                                                                          
! [unconnected]  20- VENTILA                                                                                                                                                                                                                                                                                                                                                                                                                                                                                                                                                                                                                                                                                                                                                                                                                                                                                                                                                                                                       
! [unconnected]  21- TCALEFACCION                                                                                                                                                                                                                                                                                                                                                                                                                                                                                                                                                                                                                                                                                                                                                                                                                                                                                                                                                                                                  
! [unconnected]  22- TREFRIGERACION                                                                                                                                                                                                                                                                                                                                                                                                                                                                                                                                                                                                                                                                                                                                                                                                                                                                                                                                                                                                
! [unconnected]  23- TSUELO                                                                                                                                                                                                                                                                                                                                                                                                                                                                                                                                                                                                                                                                                                                                                                                                                                                                                                                                                                                                        
! [unconnected]  24- INFILT_ASEO                                                                                                                                                                                                                                                                                                                                                                                                                                                                                                                                                                                                                                                                                                                                                                                                                                                                                                                                                                                                   
! [unconnected]  25- VENTILA_ASEO                                                                                                                                                                                                                                                                                                                                                                                                                                                                                                                                                                                                                                                                                                                                                                                                                                                                                                                                                                                                  
! excita:Output 1 -> 26- G_01                                                                                                                                                                                                                                                                                                                                                                                                                                                                                                                                                                                                                                                                                                                                                                                                                                                                                                                                                                                                    
! excita:Output 2 -> 27- G_02                                                                                                                                                                                                                                                                                                                                                                                                                                                                                                                                                                                                                                                                                                                                                                                                                                                                                                                                                                                                    
! excita:Output 3 -> 28- G_03                                                                                                                                                                                                                                                                                                                                                                                                                                                                                                                                                                                                                                                                                                                                                                                                                                                                                                                                                                                                    
! excita:Output 4 -> 29- G_04                                                                                                                                                                                                                                                                                                                                                                                                                                                                                                                                                                                                                                                                                                                                                                                                                                                                                                                                                                                                    
! excita:Output 5 -> 30- G_05                                                                                                                                                                                                                                                                                                                                                                                                                                                                                                                                                                                                                                                                                                                                                                                                                                                                                                                                                                                                    
! excita:Output 6 -> 31- G_06                                                                                                                                                                                                                                                                                                                                                                                                                                                                                                                                                                                                                                                                                                                                                                                                                                                                                                                                                                                                    
! excita:Output 7 -> 32- G_07                                                                                                                                                                                                                                                                                                                                                                                                                                                                                                                                                                                                                                                                                                                                                                                                                                                                                                                                                                                                    
       11,4                      11,9                      11,5                      CONST                     12,7                
       CONST                     CONST                     12,4                      CONST                     12,8                
       CONST                     CONST                     12,5                      CONST                     12,10               
       CONST                     CONST                     12,2                      INF                       CONST               
       CONST                     CONST                     CONST                     CONST                     CONST               
       10,1                      10,2                      10,3                      10,4                      10,5                
       10,6                      10,7                
*** INITIAL INPUT VALUES                                                                                                                                                                                                                                                                                                                                                                                                                                                                                                                                                                                                                                                                                                                                                                                                                                                                                                                                                                                                                
       0.0000000000000000E+00    0.0000000000000000E+00    0.0000000000000000E+00    0.0000000000000000E+00    0.0000000000000000E+00
       0.0000000000000000E+00    0.0000000000000000E+00    0.0000000000000000E+00    0.0000000000000000E+00    0.0000000000000000E+00
       0.0000000000000000E+00    0.0000000000000000E+00    0.0000000000000000E+00    0.0000000000000000E+00    0.0000000000000000E+00
       0.0000000000000000E+00    0.0000000000000000E+00    0.0000000000000000E+00    0.0000000000000000E+00    0.0000000000000000E+00
       0.0000000000000000E+00    0.0000000000000000E+00    0.0000000000000000E+00    0.0000000000000000E+00    0.0000000000000000E+00
       0.0000000000000000E+00    0.0000000000000000E+00    0.0000000000000000E+00    0.0000000000000000E+00    0.0000000000000000E+00
       0.0000000000000000E+00    0.0000000000000000E+00
*** External files                                                                                                                                                                                                                                                                                                                                                                                                                                                                                                                                                                                                                                                                                                                                                                                                                                                                                                                                                                                                                      
  ASSIGN alf8_tem.bui   31
[...]
    Reported information  : Sloped Surface Radiation Error
 
 
*** Warning at time       :      1520.000000
    Generated by Unit     :    12
    Generated by Type     :    16
    TRNSYS Message    437 : The total radiation calculated for one of the surfaces has exceeded the solar constant. The component solar quantities (beam and diffuse) have been adjusted such that the sum is equal to the solar constant
    Reported information  : Sloped Surface Radiation Error
 
 
*** Warning at time       :      1567.000000
    Generated by Unit     :    12
    Generated by Type     :    16
    TRNSYS Message    437 : The total radiation calculated for one of the surfaces has exceeded the solar constant. The component solar quantities (beam and diffuse) have been adjusted such that the sum is equal to the solar constant
    Reported information  : Sloped Surface Radiation Error
 
 
*** Warning at time       :      1568.000000
    Generated by Unit     :    12
    Generated by Type     :    16
    TRNSYS Message    437 : The total radiation calculated for one of the surfaces has exceeded the solar constant. The component solar quantities (beam and diffuse) have been adjusted such that the sum is equal to the solar constant
    Reported information  : Sloped Surface Radiation Error
 
 
*** Warning at time       :      1615.000000
    Generated by Unit     :    12
    Generated by Type     :    16
    TRNSYS Message    437 : The total radiation calculated for one of the surfaces has exceeded the solar constant. The component solar quantities (beam and diffuse) have been adjusted such that the sum is equal to the solar constant
    Reported information  : Sloped Surface Radiation Error
 
 
*** Warning at time       :      1616.000000
    Generated by Unit     :    12
    Generated by Type     :    16
    TRNSYS Message    437 : The total radiation calculated for one of the surfaces has exceeded the solar constant. The component solar quantities (beam and diffuse) have been adjusted such that the sum is equal to the solar constant
    Reported information  : Sloped Surface Radiation Error
 
 
*** Warning at time       :      1639.000000
    Generated by Unit     :    12
    Generated by Type     :    16
    TRNSYS Message    437 : The total radiation calculated for one of the surfaces has exceeded the solar constant. The component solar quantities (beam and diffuse) have been adjusted such that the sum is equal to the solar constant
    Reported information  : Sloped Surface Radiation Error
 
 
*** Warning at time       :      1759.000000
    Generated by Unit     :    12
    Generated by Type     :    16
    TRNSYS Message    437 : The total radiation calculated for one of the surfaces has exceeded the solar constant. The component solar quantities (beam and diffuse) have been adjusted such that the sum is equal to the solar constant
    Reported information  : Sloped Surface Radiation Error
 
 
*** Warning at time       :      1760.000000
    Generated by Unit     :    12
    Generated by Type     :    16
    TRNSYS Message    437 : The total radiation calculated for one of the surfaces has exceeded the solar constant. The component solar quantities (beam and diffuse) have been adjusted such that the sum is equal to the solar constant
    Reported information  : Sloped Surface Radiation Error
 
 
*** Warning at time       :      1831.000000
    Generated by Unit     :    12
    Generated by Type     :    16
    TRNSYS Message    437 : The total radiation calculated for one of the surfaces has exceeded the solar constant. The component solar quantities (beam and diffuse) have been adjusted such that the sum is equal to the solar constant
    Reported information  : Sloped Surface Radiation Error
 
 
*** Warning at time       :      1832.000000
    Generated by Unit     :    12
    Generated by Type     :    16
    TRNSYS Message    437 : The total radiation calculated for one of the surfaces has exceeded the solar constant. The component solar quantities (beam and diffuse) have been adjusted such that the sum is equal to the solar constant
    Reported information  : Sloped Surface Radiation Error
 
 
*** Warning at time       :      2191.000000
    Generated by Unit     :    12
    Generated by Type     :    16
    TRNSYS Message    437 : The total radiation calculated for one of the surfaces has exceeded the solar constant. The component solar quantities (beam and diffuse) have been adjusted such that the sum is equal to the solar constant
    Reported information  : Sloped Surface Radiation Error
 
 
*** Warning at time       :      2215.000000
    Generated by Unit     :    12
    Generated by Type     :    16
    TRNSYS Message    437 : The total radiation calculated for one of the surfaces has exceeded the solar constant. The component solar quantities (beam and diffuse) have been adjusted such that the sum is equal to the solar constant
    Reported information  : Sloped Surface Radiation Error
 
 
*** Warning at time       :      2383.000000
    Generated by Unit     :    12
    Generated by Type     :    16
    TRNSYS Message    437 : The total radiation calculated for one of the surfaces has exceeded the solar constant. The component solar quantities (beam and diffuse) have been adjusted such that the sum is equal to the solar constant
    Reported information  : Sloped Surface Radiation Error
 
 
*** Warning at time       :      2430.000000
    Generated by Unit     :    12
    Generated by Type     :    16
    TRNSYS Message    437 : The total radiation calculated for one of the surfaces has exceeded the solar constant. The component solar quantities (beam and diffuse) have been adjusted such that the sum is equal to the solar constant
    Reported information  : Sloped Surface Radiation Error
 
 
*** Warning at time       :      2766.000000
    Generated by Unit     :    12
    Generated by Type     :    16
    TRNSYS Message    437 : The total radiation calculated for one of the surfaces has exceeded the solar constant. The component solar quantities (beam and diffuse) have been adjusted such that the sum is equal to the solar constant
    Reported information  : Sloped Surface Radiation Error
 
 
*** Warning at time       :      5166.000000
    Generated by Unit     :    12
    Generated by Type     :    16
    TRNSYS Message    437 : The total radiation calculated for one of the surfaces has exceeded the solar constant. The component solar quantities (beam and diffuse) have been adjusted such that the sum is equal to the solar constant
    Reported information  : Sloped Surface Radiation Error
 
 
*** Warning at time       :      5455.000000
    Generated by Unit     :    12
    Generated by Type     :    16
    TRNSYS Message    437 : The total radiation calculated for one of the surfaces has exceeded the solar constant. The component solar quantities (beam and diffuse) have been adjusted such that the sum is equal to the solar constant
    Reported information  : Sloped Surface Radiation Error
 
 
*** Warning at time       :      5479.000000
    Generated by Unit     :    12
    Generated by Type     :    16
    TRNSYS Message    437 : The total radiation calculated for one of the surfaces has exceeded the solar constant. The component solar quantities (beam and diffuse) have been adjusted such that the sum is equal to the solar constant
    Reported information  : Sloped Surface Radiation Error
 
 
*** Warning at time       :      5551.000000
    Generated by Unit     :    12
    Generated by Type     :    16
    TRNSYS Message    437 : The total radiation calculated for one of the surfaces has exceeded the solar constant. The component solar quantities (beam and diffuse) have been adjusted such that the sum is equal to the solar constant
    Reported information  : Sloped Surface Radiation Error
 
 
*** Warning at time       :      5598.000000
    Generated by Unit     :    12
    Generated by Type     :    16
    TRNSYS Message    437 : The total radiation calculated for one of the surfaces has exceeded the solar constant. The component solar quantities (beam and diffuse) have been adjusted such that the sum is equal to the solar constant
    Reported information  : Sloped Surface Radiation Error
 
 
*** Warning at time       :      5599.000000
    Generated by Unit     :    12
    Generated by Type     :    16
    TRNSYS Message    437 : The total radiation calculated for one of the surfaces has exceeded the solar constant. The component solar quantities (beam and diffuse) have been adjusted such that the sum is equal to the solar constant
    Reported information  : Sloped Surface Radiation Error
 
 
*** Warning at time       :      5623.000000
    Generated by Unit     :    12
    Generated by Type     :    16
    TRNSYS Message    437 : The total radiation calculated for one of the surfaces has exceeded the solar constant. The component solar quantities (beam and diffuse) have been adjusted such that the sum is equal to the solar constant
    Reported information  : Sloped Surface Radiation Error
 
 
*** Warning at time       :      5695.000000
    Generated by Unit     :    12
    Generated by Type     :    16
    TRNSYS Message    437 : The total radiation calculated for one of the surfaces has exceeded the solar constant. The component solar quantities (beam and diffuse) have been adjusted such that the sum is equal to the solar constant
    Reported information  : Sloped Surface Radiation Error
 
 
*** Warning at time       :      5767.000000
    Generated by Unit     :    12
    Generated by Type     :    16
    TRNSYS Message    437 : The total radiation calculated for one of the surfaces has exceeded the solar constant. The component solar quantities (beam and diffuse) have been adjusted such that the sum is equal to the solar constant
    Reported information  : Sloped Surface Radiation Error
 
 
*** Warning at time       :      5863.000000
    Generated by Unit     :    12
    Generated by Type     :    16
    TRNSYS Message    437 : The total radiation calculated for one of the surfaces has exceeded the solar constant. The component solar quantities (beam and diffuse) have been adjusted such that the sum is equal to the solar constant
    Reported information  : Sloped Surface Radiation Error
 
 
*** Warning at time       :      5935.000000
    Generated by Unit     :    12
    Generated by Type     :    16
    TRNSYS Message    437 : The total radiation calculated for one of the surfaces has exceeded the solar constant. The component solar quantities (beam and diffuse) have been adjusted such that the sum is equal to the solar constant
    Reported information  : Sloped Surface Radiation Error
 
 
*** Warning at time       :      6007.000000
    Generated by Unit     :    12
    Generated by Type     :    16
    TRNSYS Message    437 : The total radiation calculated for one of the surfaces has exceeded the solar constant. The component solar quantities (beam and diffuse) have been adjusted such that the sum is equal to the solar constant
    Reported information  : Sloped Surface Radiation Error
 
 
*** Warning at time       :      6031.000000
    Generated by Unit     :    12
    Generated by Type     :    16
    TRNSYS Message    437 : The total radiation calculated for one of the surfaces has exceeded the solar constant. The component solar quantities (beam and diffuse) have been adjusted such that the sum is equal to the solar constant
    Reported information  : Sloped Surface Radiation Error
 
 
*** Warning at time       :      6055.000000
    Generated by Unit     :    12
    Generated by Type     :    16
    TRNSYS Message    437 : The total radiation calculated for one of the surfaces has exceeded the solar constant. The component solar quantities (beam and diffuse) have been adjusted such that the sum is equal to the solar constant
    Reported information  : Sloped Surface Radiation Error
 
 
*** Warning at time       :      6079.000000
    Generated by Unit     :    12
    Generated by Type     :    16
    TRNSYS Message    437 : The total radiation calculated for one of the surfaces has exceeded the solar constant. The component solar quantities (beam and diffuse) have been adjusted such that the sum is equal to the solar constant
    Reported information  : Sloped Surface Radiation Error
 
 
*** Warning at time       :      6103.000000
    Generated by Unit     :    12
    Generated by Type     :    16
    TRNSYS Message    437 : The total radiation calculated for one of the surfaces has exceeded the solar constant. The component solar quantities (beam and diffuse) have been adjusted such that the sum is equal to the solar constant
    Reported information  : Sloped Surface Radiation Error
 
 
*** Warning at time       :      6295.000000
    Generated by Unit     :    12
    Generated by Type     :    16
    TRNSYS Message    437 : The total radiation calculated for one of the surfaces has exceeded the solar constant. The component solar quantities (beam and diffuse) have been adjusted such that the sum is equal to the solar constant
    Reported information  : Sloped Surface Radiation Error
 
 
*** Warning at time       :      6319.000000
    Generated by Unit     :    12
    Generated by Type     :    16
    TRNSYS Message    437 : The total radiation calculated for one of the surfaces has exceeded the solar constant. The component solar quantities (beam and diffuse) have been adjusted such that the sum is equal to the solar constant
    Reported information  : Sloped Surface Radiation Error
 
 
*** Warning at time       :      6463.000000
    Generated by Unit     :    12
    Generated by Type     :    16
    TRNSYS Message    437 : The total radiation calculated for one of the surfaces has exceeded the solar constant. The component solar quantities (beam and diffuse) have been adjusted such that the sum is equal to the solar constant
    Reported information  : Sloped Surface Radiation Error
 
 
*** Warning at time       :      6487.000000
    Generated by Unit     :    12
    Generated by Type     :    16
    TRNSYS Message    437 : The total radiation calculated for one of the surfaces has exceeded the solar constant. The component solar quantities (beam and diffuse) have been adjusted such that the sum is equal to the solar constant
    Reported information  : Sloped Surface Radiation Error
 
 
*** Warning at time       :      6655.000000
    Generated by Unit     :    12
    Generated by Type     :    16
    TRNSYS Message    437 : The total radiation calculated for one of the surfaces has exceeded the solar constant. The component solar quantities (beam and diffuse) have been adjusted such that the sum is equal to the solar constant
    Reported information  : Sloped Surface Radiation Error
 
 
*** Warning at time       :      6727.000000
    Generated by Unit     :    12
    Generated by Type     :    16
    TRNSYS Message    437 : The total radiation calculated for one of the surfaces has exceeded the solar constant. The component solar quantities (beam and diffuse) have been adjusted such that the sum is equal to the solar constant
    Reported information  : Sloped Surface Radiation Error
 
 
*** Notice at time        :      8758.000000
    Generated by Unit     :    10
    Generated by Type     :     9
    Message               : The specified component model has exhausted the data supply and has rewound the data file to begin reading from the top of the data file.
 
 
*** Notice at time        :      8759.000000
    Generated by Unit     :    11
    Generated by Type     :     9
    Message               : The specified component model has exhausted the data supply and has rewound the data file to begin reading from the top of the data file.
 
 
*** Notice at time        :      8760.000000
    Generated by Unit     :     3
    Generated by Type     :    56
    Message               : Geometrical distribution factors for direct solar (GEOSURF) in zone   1 equal zero occurred. Direct solar   radiaton is treated as diffuse radiation!
 
 
*** Notice at time        :      8760.000000
    Generated by Unit     :     3
    Generated by Type     :    56
    Message               : Geometrical distribution factors for direct solar (GEOSURF) in zone   2 equal zero occurred. Direct solar   radiaton is treated as diffuse radiation!
 
 
*** Notice at time        :      8760.000000
    Generated by Unit     :     3
    Generated by Type     :    56
    Message               : Geometrical distribution factors for direct solar (GEOSURF) in zone   3 equal zero occurred. Direct solar   radiaton is treated as diffuse radiation!
 
 
*** Notice at time        :      8760.000000
    Generated by Unit     :     3
    Generated by Type     :    56
    Message               : Geometrical distribution factors for direct solar (GEOSURF) in zone   4 equal zero occurred. Direct solar   radiaton is treated as diffuse radiation!
 
 
*** Notice at time        :      8760.000000
    Generated by Unit     :     3
    Generated by Type     :    56
    Message               : Geometrical distribution factors for direct solar (GEOSURF) in zone   5 equal zero occurred. Direct solar   radiaton is treated as diffuse radiation!
 
 
*** Notice at time        :      8760.000000
    Generated by Unit     :     3
    Generated by Type     :    56
    Message               : Geometrical distribution factors for direct solar (GEOSURF) in zone   6 equal zero occurred. Direct solar   radiaton is treated as diffuse radiation!
 
 
*** Notice at time        :      8760.000000
    Generated by Unit     :     3
    Generated by Type     :    56
    Message               : Geometrical distribution factors for direct solar (GEOSURF) in zone   7 equal zero occurred. Direct solar   radiaton is treated as diffuse radiation!
 
==========================================================================================
TYPE56 TIME REPORT: (for debugging purpose)
------------------------------------------------------------------------------------------
time_report_unit:   6
time_filter:       .8760E+07 [ms]
==========================================================================================
Level0      Level1      Level2      Level3      Level4        Counter DTime[ms]  TTime[ms]
==========================================================================================
 
*** Warning at time       :      8760.000000
    Generated by Unit     :    12
    Generated by Type     :    16
    Message               : The beam radiation exceeded the extraterrestrial radiation for 199 timesteps during the simulation.
 


*********************************************************************************************************
The Following UNIT Numbers, TYPE Numbers, and Logical Units Were Used in the Supplied TRNSYS Input File: 
                         3             9                 4
                         7            16                 6
                         8            25                 9
                         9            56                31
                        10            65                33
                        11                              34
                        12                              35
                                                        36
                                                        37


*********************************************************************************************************
Total TRNSYS Calculation Time:                         27.8600 Seconds
